<?xml version="1.0" encoding="UTF-8"?>

<!-- generated on 2022-10-09 17:47:36 by Eclipse SUMO netedit Version 1.11.0
<configuration xmlns:xsi="http://www.w3.org/2001/XMLSchema-instance" xsi:noNamespaceSchemaLocation="http://sumo.dlr.de/xsd/netconvertConfiguration.xsd">

    <input>
        <sumo-net-file value="/home/veins/Documents/proj/ceg.net.xml"/>
    </input>

    <output>
        <output-file value="/home/veins/Documents/proj/ceg.net.xml"/>
    </output>

    <processing>
        <geometry.min-radius.fix.railways value="false"/>
        <geometry.max-grade.fix value="false"/>
        <offset.disable-normalization value="true"/>
        <lefthand value="false"/>
    </processing>

    <junctions>
        <no-turnarounds value="true"/>
        <junctions.corner-detail value="5"/>
        <junctions.limit-turn-speed value="5.5"/>
        <rectangular-lane-cut value="false"/>
    </junctions>

    <pedestrian>
        <walkingareas value="false"/>
    </pedestrian>

    <netedit>
        <additional-files value="/home/veins/Documents/proj/ceg.add.xml"/>
    </netedit>

    <report>
        <aggregate-warnings value="5"/>
    </report>

</configuration>
-->

<additional xmlns:xsi="http://www.w3.org/2001/XMLSchema-instance" xsi:noNamespaceSchemaLocation="http://sumo.dlr.de/xsd/additional_file.xsd">
    <trainStop id="trainStop_-E41_0_1" lane="-E41_0" startPos="179.62" endPos="189.62"/>
    <trainStop id="trainStop_-E42_0_8" lane="-E42_0" startPos="264.06" endPos="274.06"/>
    <trainStop id="trainStop_-E44_0_7" lane="-E44_0" startPos="266.02" endPos="276.02"/>
    <trainStop id="trainStop_-E45_0_6" lane="-E45_0" startPos="239.22" endPos="249.22"/>
    <trainStop id="trainStop_-E46_0_5" lane="-E46_0" startPos="15.29" endPos="25.29"/>
    <trainStop id="trainStop_E41_0_0" lane="E41_0" startPos="5.26" endPos="15.26"/>
    <trainStop id="trainStop_E43_0_2" lane="E43_0" startPos="273.91" endPos="283.91"/>
    <trainStop id="trainStop_E45_0_3" lane="E45_0" startPos="95.08" endPos="105.08"/>
    <trainStop id="trainStop_E46_0_4" lane="E46_0" startPos="179.67" endPos="189.67"/>
    <rerouter id="rerouter_0" edges="-E17" pos="176.99,62.51">
        <interval begin="0.00" end="1000000000.00">
            <destProbReroute id="E17" probability="0.75"/>
        </interval>
    </rerouter>
    <rerouter id="rerouter_1" edges="E22" pos="247.73,-99.48">
        <interval begin="0.00" end="1000000000.00">
            <destProbReroute id="E34" probability="1.00"/>
        </interval>
    </rerouter>
    <rerouter id="rerouter_10" edges="E28" pos="796.25,72.80">
        <interval begin="0.00" end="1000000000.00">
            <destProbReroute id="-E28" probability="0.75"/>
        </interval>
    </rerouter>
    <rerouter id="rerouter_11" edges="-E33" pos="729.76,29.33">
        <interval begin="0.00" end="1000000000.00">
            <destProbReroute id="E33" probability="1.00"/>
        </interval>
    </rerouter>
    <rerouter id="rerouter_14" edges="E29" pos="549.30,18.49">
        <interval begin="0.00" end="1000000000.00">
            <destProbReroute id="-E35" probability="0.75"/>
        </interval>
    </rerouter>
    <rerouter id="rerouter_15" edges="-E35" pos="558.31,-4.06">
        <interval begin="0.00" end="1000000000.00">
            <destProbReroute id="E29" probability="0.50"/>
        </interval>
    </rerouter>
    <rerouter id="rerouter_2" edges="-E23" pos="511.86,73.29">
        <interval begin="0.00" end="1000000000.00">
            <destProbReroute id="E23" probability="0.75"/>
        </interval>
    </rerouter>
    <rerouter id="rerouter_3" edges="E27" pos="497.99,-119.81">
        <interval begin="0.00" end="1000000000.00">
            <destProbReroute id="E35" probability="1.00"/>
        </interval>
    </rerouter>
    <rerouter id="rerouter_4" edges="-E28" pos="796.25,72.80">
        <interval begin="0.00" end="1000000000.00">
            <destProbReroute id="E28" probability="0.75"/>
        </interval>
    </rerouter>
    <rerouter id="rerouter_5" edges="E33" pos="729.76,29.33">
        <interval begin="0.00" end="1000000000.00">
            <destProbReroute id="-E33" probability="1.00"/>
        </interval>
    </rerouter>
    <rerouter id="rerouter_6" edges="E17" pos="176.99,62.51">
        <interval begin="0.00" end="1000000000.00">
            <destProbReroute id="-E17" probability="0.75"/>
        </interval>
    </rerouter>
    <rerouter id="rerouter_7" edges="E34" pos="247.73,-99.48">
        <interval begin="0.00" end="1000000000.00">
            <destProbReroute id="E22" probability="1.00"/>
        </interval>
    </rerouter>
    <rerouter id="rerouter_8" edges="E23" pos="511.86,73.29">
        <interval begin="0.00" end="1000000000.00">
            <destProbReroute id="-E23" probability="0.75"/>
        </interval>
    </rerouter>
    <rerouter id="rerouter_9" edges="E35" pos="497.99,-119.81">
        <interval begin="0.00" end="1000000000.00">
            <destProbReroute id="E27" probability="1.00"/>
        </interval>
    </rerouter>
</additional>
