<?xml version="1.0" encoding="UTF-8"?>

<!-- generated on 2022-10-09 17:47:32 by Eclipse SUMO netedit Version 1.11.0
<configuration xmlns:xsi="http://www.w3.org/2001/XMLSchema-instance" xsi:noNamespaceSchemaLocation="http://sumo.dlr.de/xsd/netconvertConfiguration.xsd">

    <input>
        <sumo-net-file value="/home/veins/Documents/proj/ceg.net.xml"/>
    </input>

    <output>
        <output-file value="/home/veins/Documents/proj/ceg.net.xml"/>
    </output>

    <processing>
        <geometry.min-radius.fix.railways value="false"/>
        <geometry.max-grade.fix value="false"/>
        <offset.disable-normalization value="true"/>
        <lefthand value="false"/>
    </processing>

    <junctions>
        <no-turnarounds value="true"/>
        <junctions.corner-detail value="5"/>
        <junctions.limit-turn-speed value="5.5"/>
        <rectangular-lane-cut value="false"/>
    </junctions>

    <pedestrian>
        <walkingareas value="false"/>
    </pedestrian>

    <report>
        <aggregate-warnings value="5"/>
    </report>

</configuration>
-->

<net version="1.9" junctionCornerDetail="5" limitTurnSpeed="5.50" xmlns:xsi="http://www.w3.org/2001/XMLSchema-instance" xsi:noNamespaceSchemaLocation="http://sumo.dlr.de/xsd/net_file.xsd">

    <location netOffset="0.00,0.00" convBoundary="-300.00,-200.00,1000.00,100.00" origBoundary="-10000000000.00,-10000000000.00,10000000000.00,10000000000.00" projParameter="!"/>

    <edge id=":J18_0" function="internal">
        <lane id=":J18_0_0" index="0" speed="3.65" length="4.67" shape="200.00,98.40 201.20,99.20 201.60,100.00 201.20,100.80 200.00,101.60"/>
    </edge>
    <edge id=":J19_0" function="internal">
        <lane id=":J19_0_0" index="0" speed="13.89" length="0.10" shape="100.00,108.00 100.00,108.00"/>
        <lane id=":J19_0_1" index="1" speed="13.89" length="0.10" shape="100.00,104.80 100.00,104.80"/>
        <lane id=":J19_0_2" index="2" speed="13.89" length="0.10" shape="100.00,101.60 100.00,101.60"/>
    </edge>
    <edge id=":J19_3" function="internal">
        <lane id=":J19_3_0" index="0" speed="13.89" length="0.10" shape="100.00,92.00 100.00,92.00"/>
        <lane id=":J19_3_1" index="1" speed="13.89" length="0.10" shape="100.00,95.20 100.00,95.20"/>
        <lane id=":J19_3_2" index="2" speed="13.89" length="0.10" shape="100.00,98.40 100.00,98.40"/>
    </edge>
    <edge id=":J20_0" function="internal">
        <lane id=":J20_0_0" index="0" speed="11.12" length="28.38" shape="9.60,108.00 1.90,106.90 -3.60,103.60 -6.90,98.10 -8.00,90.40"/>
        <lane id=":J20_0_1" index="1" speed="10.10" length="23.22" shape="9.60,104.80 3.30,103.90 -1.20,101.20 -3.90,96.70 -4.80,90.40"/>
        <lane id=":J20_0_2" index="2" speed="8.96" length="18.06" shape="9.60,101.60 4.70,100.90 1.20,98.80 -0.90,95.30 -1.60,90.40"/>
    </edge>
    <edge id=":J20_3" function="internal">
        <lane id=":J20_3_0" index="0" speed="3.90" length="2.58" shape="8.00,90.40 8.10,91.10 8.40,91.60 8.90,91.90 9.60,92.00"/>
        <lane id=":J20_3_1" index="1" speed="6.08" length="7.74" shape="4.80,90.40 5.10,92.50 6.00,94.00 7.50,94.90 9.60,95.20"/>
        <lane id=":J20_3_2" index="2" speed="7.66" length="12.90" shape="1.60,90.40 2.10,93.90 3.60,96.40 6.10,97.90 9.60,98.40"/>
    </edge>
    <edge id=":J21_0" function="internal">
        <lane id=":J21_0_0" index="0" disallow="pedestrian tram rail_urban rail rail_electric rail_fast ship" speed="6.51" length="9.03" shape="-8.00,7.20 -8.35,4.75 -9.40,3.00 -11.15,1.95 -13.60,1.60"/>
    </edge>
    <edge id=":J21_1" function="internal">
        <lane id=":J21_1_0" index="0" speed="13.89" length="14.40" shape="-8.00,7.20 -8.00,-7.20"/>
        <lane id=":J21_1_1" index="1" speed="13.89" length="14.40" shape="-4.80,7.20 -4.80,-7.20"/>
        <lane id=":J21_1_2" index="2" speed="13.89" length="14.40" shape="-1.60,7.20 -1.60,-7.20"/>
    </edge>
    <edge id=":J21_4" function="internal">
        <lane id=":J21_4_0" index="0" speed="13.89" length="14.40" shape="8.00,-7.20 8.00,7.20"/>
        <lane id=":J21_4_1" index="1" speed="13.89" length="14.40" shape="4.80,-7.20 4.80,7.20"/>
        <lane id=":J21_4_2" index="2" speed="13.89" length="14.40" shape="1.60,-7.20 1.60,7.20"/>
    </edge>
    <edge id=":J21_7" function="internal">
        <lane id=":J21_7_0" index="0" disallow="pedestrian tram rail_urban rail rail_electric rail_fast ship" speed="9.32" length="4.87" shape="1.60,-7.20 0.65,-3.35 0.00,-2.72"/>
    </edge>
    <edge id=":J21_11" function="internal">
        <lane id=":J21_11_0" index="0" disallow="pedestrian tram rail_urban rail rail_electric rail_fast ship" speed="9.32" length="14.76" shape="0.00,-2.72 -2.20,-0.60 -6.95,1.05 -13.60,1.60"/>
    </edge>
    <edge id=":J21_8" function="internal">
        <lane id=":J21_8_0" index="0" disallow="pedestrian tram rail_urban rail rail_electric rail_fast ship" speed="6.51" length="9.03" shape="-13.60,-1.60 -11.15,-1.95 -9.40,-3.00 -8.35,-4.75 -8.00,-7.20"/>
    </edge>
    <edge id=":J21_9" function="internal">
        <lane id=":J21_9_0" index="0" disallow="pedestrian tram rail_urban rail rail_electric rail_fast ship" speed="9.94" length="22.48" shape="-13.60,-1.60 -5.55,-1.05 0.20,0.60 3.65,3.35 4.80,7.20"/>
        <lane id=":J21_9_1" index="1" disallow="pedestrian tram rail_urban rail rail_electric rail_fast ship" speed="9.32" length="19.63" shape="-13.60,-1.60 -6.95,-1.05 -2.20,0.60 0.65,3.35 1.60,7.20"/>
    </edge>
    <edge id=":J22_0" function="internal">
        <lane id=":J22_0_0" index="0" speed="11.12" length="28.38" shape="-8.00,-90.40 -6.90,-98.10 -3.60,-103.60 1.90,-106.90 9.60,-108.00"/>
        <lane id=":J22_0_1" index="1" speed="10.10" length="23.22" shape="-4.80,-90.40 -3.90,-96.70 -1.20,-101.20 3.30,-103.90 9.60,-104.80"/>
        <lane id=":J22_0_2" index="2" speed="8.96" length="18.06" shape="-1.60,-90.40 -0.90,-95.30 1.20,-98.80 4.70,-100.90 9.60,-101.60"/>
    </edge>
    <edge id=":J22_3" function="internal">
        <lane id=":J22_3_0" index="0" speed="3.90" length="2.58" shape="9.60,-92.00 8.90,-91.90 8.40,-91.60 8.10,-91.10 8.00,-90.40"/>
        <lane id=":J22_3_1" index="1" speed="6.08" length="7.74" shape="9.60,-95.20 7.50,-94.90 6.00,-94.00 5.10,-92.50 4.80,-90.40"/>
        <lane id=":J22_3_2" index="2" speed="7.66" length="12.90" shape="9.60,-98.40 6.10,-97.90 3.60,-96.40 2.10,-93.90 1.60,-90.40"/>
    </edge>
    <edge id=":J23_0" function="internal">
        <lane id=":J23_0_0" index="0" speed="13.89" length="0.10" shape="100.00,-92.00 100.00,-92.00"/>
        <lane id=":J23_0_1" index="1" speed="13.89" length="0.10" shape="100.00,-95.20 100.00,-95.20"/>
        <lane id=":J23_0_2" index="2" speed="13.89" length="0.10" shape="100.00,-98.40 100.00,-98.40"/>
    </edge>
    <edge id=":J23_3" function="internal">
        <lane id=":J23_3_0" index="0" speed="13.89" length="0.10" shape="100.00,-108.00 100.00,-108.00"/>
        <lane id=":J23_3_1" index="1" speed="13.89" length="0.10" shape="100.00,-104.80 100.00,-104.80"/>
        <lane id=":J23_3_2" index="2" speed="13.89" length="0.10" shape="100.00,-101.60 100.00,-101.60"/>
    </edge>
    <edge id=":J24_0" function="internal">
        <lane id=":J24_0_0" index="0" speed="7.11" length="4.40" shape="207.38,-90.36 206.51,-91.08 205.57,-91.59 204.53,-91.90 203.42,-92.00"/>
        <lane id=":J24_0_1" index="1" speed="8.41" length="6.31" shape="207.38,-90.36 206.60,-91.41 205.51,-93.05 204.36,-94.54 203.42,-95.20"/>
        <lane id=":J24_0_2" index="2" speed="10.84" length="10.76" shape="207.38,-90.36 204.11,-93.88 202.37,-96.39 202.13,-97.90 203.42,-98.40"/>
    </edge>
    <edge id=":J24_3" function="internal">
        <lane id=":J24_3_0" index="0" speed="13.89" length="20.91" shape="203.42,-108.00 200.37,-107.04 200.40,-104.16 203.48,-99.35 209.64,-92.62"/>
    </edge>
    <edge id=":J25_0" function="internal">
        <lane id=":J25_0_0" index="0" speed="3.65" length="4.67" shape="500.00,98.40 501.20,99.20 501.60,100.00 501.20,100.80 500.00,101.60"/>
    </edge>
    <edge id=":J26_0" function="internal">
        <lane id=":J26_0_0" index="0" speed="11.12" length="28.38" shape="309.60,108.00 301.90,106.90 296.40,103.60 293.10,98.10 292.00,90.40"/>
        <lane id=":J26_0_1" index="1" speed="10.10" length="23.22" shape="309.60,104.80 303.30,103.90 298.80,101.20 296.10,96.70 295.20,90.40"/>
        <lane id=":J26_0_2" index="2" speed="8.96" length="18.06" shape="309.60,101.60 304.70,100.90 301.20,98.80 299.10,95.30 298.40,90.40"/>
    </edge>
    <edge id=":J26_3" function="internal">
        <lane id=":J26_3_0" index="0" speed="3.90" length="2.58" shape="308.00,90.40 308.10,91.10 308.40,91.60 308.90,91.90 309.60,92.00"/>
        <lane id=":J26_3_1" index="1" speed="6.08" length="7.74" shape="304.80,90.40 305.10,92.50 306.00,94.00 307.50,94.90 309.60,95.20"/>
        <lane id=":J26_3_2" index="2" speed="7.66" length="12.90" shape="301.60,90.40 302.10,93.90 303.60,96.40 306.10,97.90 309.60,98.40"/>
    </edge>
    <edge id=":J27_0" function="internal">
        <lane id=":J27_0_0" index="0" speed="13.89" length="28.92" shape="292.00,13.60 291.51,4.65 290.04,-2.86 287.60,-8.93 284.18,-13.56"/>
    </edge>
    <edge id=":J27_1" function="internal">
        <lane id=":J27_1_0" index="0" speed="13.89" length="31.73" shape="292.00,13.60 292.00,-18.13"/>
        <lane id=":J27_1_1" index="1" speed="13.89" length="31.73" shape="295.20,13.60 295.20,-18.13"/>
        <lane id=":J27_1_2" index="2" speed="13.89" length="31.73" shape="298.40,13.60 298.40,-18.13"/>
    </edge>
    <edge id=":J27_4" function="internal">
        <lane id=":J27_4_0" index="0" speed="10.36" length="7.98" shape="298.40,13.60 299.35,6.95 300.00,5.87"/>
    </edge>
    <edge id=":J27_16" function="internal">
        <lane id=":J27_16_0" index="0" speed="10.36" length="16.53" shape="300.00,5.87 302.20,2.20 306.95,-0.65 313.60,-1.60"/>
    </edge>
    <edge id=":J27_5" function="internal">
        <lane id=":J27_5_0" index="0" speed="6.51" length="9.03" shape="313.60,8.00 311.15,8.35 309.40,9.40 308.35,11.15 308.00,13.60"/>
    </edge>
    <edge id=":J27_6" function="internal">
        <lane id=":J27_6_0" index="0" speed="13.89" length="35.36" shape="313.60,4.80 307.61,3.65 300.71,0.21 292.90,-5.53 284.18,-13.56"/>
    </edge>
    <edge id=":J27_7" function="internal">
        <lane id=":J27_7_0" index="0" speed="11.10" length="14.76" shape="313.60,1.60 306.95,0.37 302.20,-3.33 301.37,-5.13"/>
    </edge>
    <edge id=":J27_17" function="internal">
        <lane id=":J27_17_0" index="0" speed="11.10" length="13.50" shape="301.37,-5.13 299.35,-9.50 298.40,-18.13"/>
    </edge>
    <edge id=":J27_8" function="internal">
        <lane id=":J27_8_0" index="0" speed="7.65" length="12.89" shape="308.00,-18.13 308.35,-13.70 309.40,-10.53 311.15,-8.63 313.60,-8.00"/>
    </edge>
    <edge id=":J27_9" function="internal">
        <lane id=":J27_9_0" index="0" speed="13.89" length="31.73" shape="308.00,-18.13 308.00,13.60"/>
        <lane id=":J27_9_1" index="1" speed="13.89" length="31.73" shape="304.80,-18.13 304.80,13.60"/>
        <lane id=":J27_9_2" index="2" speed="13.89" length="31.73" shape="301.60,-18.13 301.60,13.60"/>
    </edge>
    <edge id=":J27_12" function="internal">
        <lane id=":J27_12_0" index="0" speed="8.18" length="5.72" shape="301.60,-18.13 300.00,-12.63"/>
    </edge>
    <edge id=":J27_18" function="internal">
        <lane id=":J27_18_0" index="0" speed="8.18" length="18.05" shape="300.00,-12.63 299.87,-12.20 295.54,-9.44 289.88,-9.88 284.18,-13.56"/>
    </edge>
    <edge id=":J27_13" function="internal">
        <lane id=":J27_13_0" index="0" speed="5.47" length="9.74" shape="286.44,-15.82 288.87,-13.88 290.61,-13.62 291.65,-15.03 292.00,-18.13"/>
    </edge>
    <edge id=":J27_14" function="internal">
        <lane id=":J27_14_0" index="0" speed="13.89" length="30.08" shape="286.44,-15.82 292.27,-11.00 298.74,-7.56 305.85,-5.49 313.60,-4.80"/>
    </edge>
    <edge id=":J27_15" function="internal">
        <lane id=":J27_15_0" index="0" speed="13.89" length="12.07" shape="286.44,-15.82 293.07,-8.30 294.17,-6.58"/>
    </edge>
    <edge id=":J27_19" function="internal">
        <lane id=":J27_19_0" index="0" speed="13.89" length="21.84" shape="294.17,-6.58 297.81,-0.89 300.65,6.41 301.60,13.60"/>
    </edge>
    <edge id=":J28_0" function="internal">
        <lane id=":J28_0_0" index="0" speed="3.65" length="4.67" shape="500.00,-1.60 501.20,-0.80 501.60,0.00 501.20,0.80 500.00,1.60"/>
    </edge>
    <edge id=":J29_0" function="internal">
        <lane id=":J29_0_0" index="0" speed="11.12" length="28.38" shape="292.00,-90.40 293.10,-98.10 296.40,-103.60 301.90,-106.90 309.60,-108.00"/>
        <lane id=":J29_0_1" index="1" speed="10.10" length="23.22" shape="295.20,-90.40 296.10,-96.70 298.80,-101.20 303.30,-103.90 309.60,-104.80"/>
        <lane id=":J29_0_2" index="2" speed="8.96" length="18.06" shape="298.40,-90.40 299.10,-95.30 301.20,-98.80 304.70,-100.90 309.60,-101.60"/>
    </edge>
    <edge id=":J29_3" function="internal">
        <lane id=":J29_3_0" index="0" speed="3.90" length="2.58" shape="309.60,-92.00 308.90,-91.90 308.40,-91.60 308.10,-91.10 308.00,-90.40"/>
        <lane id=":J29_3_1" index="1" speed="6.08" length="7.74" shape="309.60,-95.20 307.50,-94.90 306.00,-94.00 305.10,-92.50 304.80,-90.40"/>
        <lane id=":J29_3_2" index="2" speed="7.66" length="12.90" shape="309.60,-98.40 306.10,-97.90 303.60,-96.40 302.10,-93.90 301.60,-90.40"/>
    </edge>
    <edge id=":J30_0" function="internal">
        <lane id=":J30_0_0" index="0" speed="7.11" length="4.40" shape="507.38,-90.36 506.51,-91.08 505.57,-91.59 504.53,-91.90 503.42,-92.00"/>
        <lane id=":J30_0_1" index="1" speed="8.41" length="6.31" shape="507.38,-90.36 506.60,-91.41 505.51,-93.05 504.36,-94.54 503.42,-95.20"/>
        <lane id=":J30_0_2" index="2" speed="10.84" length="10.76" shape="507.38,-90.36 504.11,-93.88 502.37,-96.39 502.13,-97.90 503.42,-98.40"/>
    </edge>
    <edge id=":J30_3" function="internal">
        <lane id=":J30_3_0" index="0" speed="13.89" length="18.18" shape="503.42,-108.00 507.39,-106.09 508.31,-101.64 508.34,-96.52 509.64,-92.62"/>
    </edge>
    <edge id=":J31_0" function="internal">
        <lane id=":J31_0_0" index="0" speed="3.65" length="4.67" shape="800.00,98.40 801.20,99.20 801.60,100.00 801.20,100.80 800.00,101.60"/>
    </edge>
    <edge id=":J32_0" function="internal">
        <lane id=":J32_0_0" index="0" speed="11.12" length="28.38" shape="609.60,108.00 601.90,106.90 596.40,103.60 593.10,98.10 592.00,90.40"/>
        <lane id=":J32_0_1" index="1" speed="10.10" length="23.22" shape="609.60,104.80 603.30,103.90 598.80,101.20 596.10,96.70 595.20,90.40"/>
        <lane id=":J32_0_2" index="2" speed="8.96" length="18.06" shape="609.60,101.60 604.70,100.90 601.20,98.80 599.10,95.30 598.40,90.40"/>
    </edge>
    <edge id=":J32_3" function="internal">
        <lane id=":J32_3_0" index="0" speed="3.90" length="2.58" shape="608.00,90.40 608.10,91.10 608.40,91.60 608.90,91.90 609.60,92.00"/>
        <lane id=":J32_3_1" index="1" speed="6.08" length="7.74" shape="604.80,90.40 605.10,92.50 606.00,94.00 607.50,94.90 609.60,95.20"/>
        <lane id=":J32_3_2" index="2" speed="7.66" length="12.90" shape="601.60,90.40 602.10,93.90 603.60,96.40 606.10,97.90 609.60,98.40"/>
    </edge>
    <edge id=":J33_0" function="internal">
        <lane id=":J33_0_0" index="0" speed="12.87" length="15.36" shape="592.00,-1.07 591.27,-5.64 589.41,-8.75 586.89,-11.15 584.18,-13.56"/>
    </edge>
    <edge id=":J33_1" function="internal">
        <lane id=":J33_1_0" index="0" speed="13.89" length="17.05" shape="592.00,-1.07 592.00,-18.13"/>
        <lane id=":J33_1_1" index="1" speed="13.89" length="17.05" shape="595.20,-1.07 595.20,-18.13"/>
        <lane id=":J33_1_2" index="2" speed="13.89" length="17.05" shape="598.40,-1.07 598.40,-18.13"/>
    </edge>
    <edge id=":J33_4" function="internal">
        <lane id=":J33_4_0" index="0" speed="13.89" length="17.05" shape="608.00,-18.13 608.00,-1.07"/>
        <lane id=":J33_4_1" index="1" speed="13.89" length="17.05" shape="604.80,-18.13 604.80,-1.07"/>
        <lane id=":J33_4_2" index="2" speed="13.89" length="17.05" shape="601.60,-18.13 601.60,-1.07"/>
    </edge>
    <edge id=":J33_7" function="internal">
        <lane id=":J33_7_0" index="0" speed="8.18" length="5.72" shape="601.60,-18.13 600.00,-12.63"/>
    </edge>
    <edge id=":J33_11" function="internal">
        <lane id=":J33_11_0" index="0" speed="8.18" length="18.05" shape="600.00,-12.63 599.87,-12.20 595.54,-9.44 589.88,-9.88 584.18,-13.56"/>
    </edge>
    <edge id=":J33_8" function="internal">
        <lane id=":J33_8_0" index="0" speed="5.47" length="9.74" shape="586.44,-15.82 588.87,-13.88 590.61,-13.62 591.65,-15.03 592.00,-18.13"/>
    </edge>
    <edge id=":J33_9" function="internal">
        <lane id=":J33_9_0" index="0" speed="13.89" length="24.23" shape="586.44,-15.82 594.47,-8.02 600.21,-2.96 603.65,-0.64 604.80,-1.07"/>
        <lane id=":J33_9_1" index="1" speed="13.89" length="21.17" shape="586.44,-15.82 589.11,-13.36 594.29,-8.56 599.33,-3.70 601.60,-1.07"/>
    </edge>
    <edge id=":J34_0" function="internal">
        <lane id=":J34_0_0" index="0" speed="11.12" length="28.38" shape="592.00,-90.40 593.10,-98.10 596.40,-103.60 601.90,-106.90 609.60,-108.00"/>
        <lane id=":J34_0_1" index="1" speed="10.10" length="23.22" shape="595.20,-90.40 596.10,-96.70 598.80,-101.20 603.30,-103.90 609.60,-104.80"/>
        <lane id=":J34_0_2" index="2" speed="8.96" length="18.06" shape="598.40,-90.40 599.10,-95.30 601.20,-98.80 604.70,-100.90 609.60,-101.60"/>
    </edge>
    <edge id=":J34_3" function="internal">
        <lane id=":J34_3_0" index="0" speed="3.90" length="2.58" shape="609.60,-92.00 608.90,-91.90 608.40,-91.60 608.10,-91.10 608.00,-90.40"/>
        <lane id=":J34_3_1" index="1" speed="6.08" length="7.74" shape="609.60,-95.20 607.50,-94.90 606.00,-94.00 605.10,-92.50 604.80,-90.40"/>
        <lane id=":J34_3_2" index="2" speed="7.66" length="12.90" shape="609.60,-98.40 606.10,-97.90 603.60,-96.40 602.10,-93.90 601.60,-90.40"/>
    </edge>
    <edge id=":J35_0" function="internal">
        <lane id=":J35_0_0" index="0" speed="3.90" length="2.58" shape="792.00,-90.40 791.90,-91.10 791.60,-91.60 791.10,-91.90 790.40,-92.00"/>
        <lane id=":J35_0_1" index="1" speed="6.08" length="7.74" shape="795.20,-90.40 794.90,-92.50 794.00,-94.00 792.50,-94.90 790.40,-95.20"/>
        <lane id=":J35_0_2" index="2" speed="7.66" length="12.90" shape="798.40,-90.40 797.90,-93.90 796.40,-96.40 793.90,-97.90 790.40,-98.40"/>
    </edge>
    <edge id=":J35_3" function="internal">
        <lane id=":J35_3_0" index="0" speed="11.12" length="28.38" shape="790.40,-108.00 798.10,-106.90 803.60,-103.60 806.90,-98.10 808.00,-90.40"/>
        <lane id=":J35_3_1" index="1" speed="10.10" length="23.22" shape="790.40,-104.80 796.70,-103.90 801.20,-101.20 803.90,-96.70 804.80,-90.40"/>
        <lane id=":J35_3_2" index="2" speed="8.96" length="18.06" shape="790.40,-101.60 795.30,-100.90 798.80,-98.80 800.90,-95.30 801.60,-90.40"/>
    </edge>
    <edge id=":J36_0" function="internal">
        <lane id=":J36_0_0" index="0" disallow="pedestrian tram rail_urban rail rail_electric rail_fast ship" speed="13.89" length="28.08" shape="813.60,1.60 809.21,2.60 803.36,4.80 795.84,7.00 786.40,8.00"/>
    </edge>
    <edge id=":J36_1" function="internal">
        <lane id=":J36_1_0" index="0" disallow="pedestrian tram rail_urban rail rail_electric rail_fast ship" speed="10.88" length="27.14" shape="813.60,1.60 805.55,0.65 799.80,-2.20 796.35,-6.95 795.20,-13.60"/>
        <lane id=":J36_1_1" index="1" disallow="pedestrian tram rail_urban rail rail_electric rail_fast ship" speed="10.36" length="24.51" shape="813.60,1.60 806.95,0.65 802.20,-2.20 799.35,-6.95 798.40,-13.60"/>
    </edge>
    <edge id=":J36_3" function="internal">
        <lane id=":J36_3_0" index="0" disallow="pedestrian tram rail_urban rail rail_electric rail_fast ship" speed="8.10" length="14.57" shape="808.00,-13.60 808.35,-8.35 809.40,-4.60 811.15,-2.35 813.60,-1.60"/>
    </edge>
    <edge id=":J36_4" function="internal">
        <lane id=":J36_4_0" index="0" speed="11.36" length="29.67" shape="804.80,-13.60 803.65,-5.55 800.20,0.20 794.45,3.65 786.40,4.80"/>
        <lane id=":J36_4_1" index="1" speed="10.36" length="24.51" shape="801.60,-13.60 800.65,-6.95 797.80,-2.20 793.05,0.65 786.40,1.60"/>
    </edge>
    <edge id=":J36_6" function="internal">
        <lane id=":J36_6_0" index="0" speed="6.51" length="9.03" shape="786.40,-8.00 788.85,-8.35 790.60,-9.40 791.65,-11.15 792.00,-13.60"/>
        <lane id=":J36_6_1" index="1" speed="8.00" length="14.19" shape="786.40,-4.80 790.25,-5.35 793.00,-7.00 794.65,-9.75 795.20,-13.60"/>
    </edge>
    <edge id=":J36_8" function="internal">
        <lane id=":J36_8_0" index="0" disallow="pedestrian tram rail_urban rail rail_electric rail_fast ship" speed="13.89" length="27.20" shape="786.40,-1.60 813.60,-1.60"/>
    </edge>
    <edge id=":J37_0" function="internal">
        <lane id=":J37_0_0" index="0" speed="3.65" length="4.67" shape="700.00,1.60 698.80,0.80 698.40,0.00 698.80,-0.80 700.00,-1.60"/>
    </edge>
    <edge id=":J45_0" function="internal">
        <lane id=":J45_0_0" index="0" allow="rail_electric" speed="6.98" length="7.74" shape="-301.60,-196.80 -301.30,-198.90 -300.40,-200.40 -298.90,-201.30 -296.80,-201.60"/>
    </edge>
    <edge id=":J45_1" function="internal">
        <lane id=":J45_1_0" index="0" allow="rail_electric" speed="4.38" length="2.58" shape="-296.80,-198.40 -297.50,-198.30 -298.00,-198.00 -298.30,-197.50 -298.40,-196.80"/>
    </edge>
    <edge id=":J46_0" function="internal">
        <lane id=":J46_0_0" index="0" allow="rail_electric" speed="13.89" length="0.10" shape="100.00,-198.40 100.00,-198.40"/>
    </edge>
    <edge id=":J46_1" function="internal">
        <lane id=":J46_1_0" index="0" allow="rail_electric" speed="13.89" length="0.10" shape="100.00,-201.60 100.00,-201.60"/>
    </edge>
    <edge id=":J47_0" function="internal">
        <lane id=":J47_0_0" index="0" allow="rail_electric" speed="13.89" length="9.40" shape="404.70,-198.40 395.30,-198.40"/>
    </edge>
    <edge id=":J47_1" function="internal">
        <lane id=":J47_1_0" index="0" allow="rail_electric" speed="13.89" length="9.40" shape="395.30,-201.60 404.70,-201.60"/>
    </edge>
    <edge id=":J48_0" function="internal">
        <lane id=":J48_0_0" index="0" allow="rail_electric" speed="13.89" length="0.10" shape="700.00,-198.40 700.00,-198.40"/>
    </edge>
    <edge id=":J48_1" function="internal">
        <lane id=":J48_1_0" index="0" allow="rail_electric" speed="13.89" length="0.10" shape="700.00,-201.60 700.00,-201.60"/>
    </edge>
    <edge id=":J49_0" function="internal">
        <lane id=":J49_0_0" index="0" allow="rail_electric" speed="4.38" length="2.58" shape="998.40,-196.80 998.30,-197.50 998.00,-198.00 997.50,-198.30 996.80,-198.40"/>
    </edge>
    <edge id=":J49_1" function="internal">
        <lane id=":J49_1_0" index="0" allow="rail_electric" speed="6.98" length="7.74" shape="996.80,-201.60 998.90,-201.30 1000.40,-200.40 1001.30,-198.90 1001.60,-196.80"/>
    </edge>

    <edge id="-E17" from="J19" to="J18" priority="-1">
        <lane id="-E17_0" index="0" speed="13.89" length="100.00" shape="100.00,92.00 200.00,92.00"/>
        <lane id="-E17_1" index="1" speed="13.89" length="100.00" shape="100.00,95.20 200.00,95.20"/>
        <lane id="-E17_2" index="2" speed="13.89" length="100.00" shape="100.00,98.40 200.00,98.40"/>
    </edge>
    <edge id="-E18" from="J20" to="J19" priority="-1">
        <lane id="-E18_0" index="0" speed="13.89" length="90.40" shape="9.60,92.00 100.00,92.00"/>
        <lane id="-E18_1" index="1" speed="13.89" length="90.40" shape="9.60,95.20 100.00,95.20"/>
        <lane id="-E18_2" index="2" speed="13.89" length="90.40" shape="9.60,98.40 100.00,98.40"/>
    </edge>
    <edge id="-E19" from="J21" to="J20" priority="-1">
        <lane id="-E19_0" index="0" speed="13.89" length="83.20" shape="8.00,7.20 8.00,90.40"/>
        <lane id="-E19_1" index="1" speed="13.89" length="83.20" shape="4.80,7.20 4.80,90.40"/>
        <lane id="-E19_2" index="2" speed="13.89" length="83.20" shape="1.60,7.20 1.60,90.40"/>
    </edge>
    <edge id="-E20" from="J22" to="J21" priority="-1">
        <lane id="-E20_0" index="0" speed="13.89" length="83.20" shape="8.00,-90.40 8.00,-7.20"/>
        <lane id="-E20_1" index="1" speed="13.89" length="83.20" shape="4.80,-90.40 4.80,-7.20"/>
        <lane id="-E20_2" index="2" speed="13.89" length="83.20" shape="1.60,-90.40 1.60,-7.20"/>
    </edge>
    <edge id="-E21" from="J23" to="J22" priority="-1">
        <lane id="-E21_0" index="0" speed="13.89" length="90.40" shape="100.00,-92.00 9.60,-92.00"/>
        <lane id="-E21_1" index="1" speed="13.89" length="90.40" shape="100.00,-95.20 9.60,-95.20"/>
        <lane id="-E21_2" index="2" speed="13.89" length="90.40" shape="100.00,-98.40 9.60,-98.40"/>
    </edge>
    <edge id="-E22" from="J24" to="J23" priority="-1">
        <lane id="-E22_0" index="0" speed="13.89" length="103.42" shape="203.42,-92.00 100.00,-92.00"/>
        <lane id="-E22_1" index="1" speed="13.89" length="103.42" shape="203.42,-95.20 100.00,-95.20"/>
        <lane id="-E22_2" index="2" speed="13.89" length="103.42" shape="203.42,-98.40 100.00,-98.40"/>
    </edge>
    <edge id="-E23" from="J26" to="J25" priority="-1">
        <lane id="-E23_0" index="0" speed="13.89" length="190.40" shape="309.60,92.00 500.00,92.00"/>
        <lane id="-E23_1" index="1" speed="13.89" length="190.40" shape="309.60,95.20 500.00,95.20"/>
        <lane id="-E23_2" index="2" speed="13.89" length="190.40" shape="309.60,98.40 500.00,98.40"/>
    </edge>
    <edge id="-E24" from="J27" to="J26" priority="-1">
        <lane id="-E24_0" index="0" speed="13.89" length="76.80" shape="308.00,13.60 308.00,90.40"/>
        <lane id="-E24_1" index="1" speed="13.89" length="76.80" shape="304.80,13.60 304.80,90.40"/>
        <lane id="-E24_2" index="2" speed="13.89" length="76.80" shape="301.60,13.60 301.60,90.40"/>
    </edge>
    <edge id="-E25" from="J28" to="J27" priority="-1">
        <lane id="-E25_0" index="0" speed="13.89" length="186.40" shape="500.00,8.00 313.60,8.00"/>
        <lane id="-E25_1" index="1" speed="13.89" length="186.40" shape="500.00,4.80 313.60,4.80"/>
        <lane id="-E25_2" index="2" speed="13.89" length="186.40" shape="500.00,1.60 313.60,1.60"/>
    </edge>
    <edge id="-E26" from="J29" to="J27" priority="-1">
        <lane id="-E26_0" index="0" speed="13.89" length="72.27" shape="308.00,-90.40 308.00,-18.13"/>
        <lane id="-E26_1" index="1" speed="13.89" length="72.27" shape="304.80,-90.40 304.80,-18.13"/>
        <lane id="-E26_2" index="2" speed="13.89" length="72.27" shape="301.60,-90.40 301.60,-18.13"/>
    </edge>
    <edge id="-E27" from="J30" to="J29" priority="-1">
        <lane id="-E27_0" index="0" speed="13.89" length="193.82" shape="503.42,-92.00 309.60,-92.00"/>
        <lane id="-E27_1" index="1" speed="13.89" length="193.82" shape="503.42,-95.20 309.60,-95.20"/>
        <lane id="-E27_2" index="2" speed="13.89" length="193.82" shape="503.42,-98.40 309.60,-98.40"/>
    </edge>
    <edge id="-E28" from="J32" to="J31" priority="-1">
        <lane id="-E28_0" index="0" speed="13.89" length="190.40" shape="609.60,92.00 800.00,92.00"/>
        <lane id="-E28_1" index="1" speed="13.89" length="190.40" shape="609.60,95.20 800.00,95.20"/>
        <lane id="-E28_2" index="2" speed="13.89" length="190.40" shape="609.60,98.40 800.00,98.40"/>
    </edge>
    <edge id="-E29" from="J33" to="J32" priority="-1">
        <lane id="-E29_0" index="0" speed="13.89" length="91.47" shape="608.00,-1.07 608.00,90.40"/>
        <lane id="-E29_1" index="1" speed="13.89" length="91.47" shape="604.80,-1.07 604.80,90.40"/>
        <lane id="-E29_2" index="2" speed="13.89" length="91.47" shape="601.60,-1.07 601.60,90.40"/>
    </edge>
    <edge id="-E30" from="J34" to="J33" priority="-1">
        <lane id="-E30_0" index="0" speed="13.89" length="72.27" shape="608.00,-90.40 608.00,-18.13"/>
        <lane id="-E30_1" index="1" speed="13.89" length="72.27" shape="604.80,-90.40 604.80,-18.13"/>
        <lane id="-E30_2" index="2" speed="13.89" length="72.27" shape="601.60,-90.40 601.60,-18.13"/>
    </edge>
    <edge id="-E31" from="J35" to="J34" priority="-1">
        <lane id="-E31_0" index="0" speed="13.89" length="180.80" shape="790.40,-92.00 609.60,-92.00"/>
        <lane id="-E31_1" index="1" speed="13.89" length="180.80" shape="790.40,-95.20 609.60,-95.20"/>
        <lane id="-E31_2" index="2" speed="13.89" length="180.80" shape="790.40,-98.40 609.60,-98.40"/>
    </edge>
    <edge id="-E32" from="J36" to="J35" priority="-1">
        <lane id="-E32_0" index="0" speed="13.89" length="76.80" shape="792.00,-13.60 792.00,-90.40"/>
        <lane id="-E32_1" index="1" speed="13.89" length="76.80" shape="795.20,-13.60 795.20,-90.40"/>
        <lane id="-E32_2" index="2" speed="13.89" length="76.80" shape="798.40,-13.60 798.40,-90.40"/>
    </edge>
    <edge id="-E33" from="J37" to="J36" priority="-1">
        <lane id="-E33_0" index="0" speed="13.89" length="86.40" shape="700.00,-8.00 786.40,-8.00"/>
        <lane id="-E33_1" index="1" speed="13.89" length="86.40" shape="700.00,-4.80 786.40,-4.80"/>
        <lane id="-E33_2" index="2" speed="13.89" length="86.40" shape="700.00,-1.60 786.40,-1.60"/>
    </edge>
    <edge id="-E34" from="J27" to="J24" priority="-1">
        <lane id="-E34_0" index="0" speed="13.89" length="108.61" shape="284.18,-13.56 207.38,-90.36"/>
    </edge>
    <edge id="-E35" from="J33" to="J30" priority="-1">
        <lane id="-E35_0" index="0" speed="13.89" length="108.61" shape="584.18,-13.56 507.38,-90.36"/>
    </edge>