<?xml version="1.0" encoding="UTF-8"?>

<!-- generated on 2022-10-09 17:47:40 by Eclipse SUMO netedit Version 1.11.0
-->

<routes xmlns:xsi="http://www.w3.org/2001/XMLSchema-instance" xsi:noNamespaceSchemaLocation="http://sumo.dlr.de/xsd/routes_file.xsd">
    <vType id="bus" vClass="bus" color="0,128,128"/>
    <vType id="train" vClass="rail_electric"/>
    <route edges="-E24 -E23" color="yellow" id="e1"/>
    <route edges="-E25 E26 E27" color="yellow" id="e2"/>
    <route edges="E23 E24 E25" color="yellow" id="e3"/>
    <route edges="E28 E29 E30 E31 E32 E33" color="0,0,0,0" id="g1"/>
    <route edges="-E33 -E32 -E31 -E30 -E35 -E27 -E26 -E34 -E22 -E21 -E20" color="0,0,0,0" id="g2"/>
    <route edges="E17 E18 E19 E20 E21 E22" color="yellow" id="route_0"/>
    <route edges="E17 E18 E19 E47" color="yellow" id="route_1"/>
    <route edges="-E47 -E19 -E18 -E17 E17 E18 E19 E20 E21 E22 E34 -E24 -E23 E23 E24 E25 -E25 E26 E27 E35 -E29 -E28 E28 E29 E30 E31 E32 E33" color="yellow" id="route_2"/>
    <route edges="-E29 -E28" color="0,0,0,0" id="route_3"/>
    <route edges="-E30 -E35 -E27 -E26 -E34 -E22 -E21 -E20 E47" color="yellow" id="route_4"/>
    <route edges="E41 E42 E43 E44 E45 E46" color="yellow" id="route_5"/>
    <route edges="-E46 -E45 -E44 -E43 -E42 -E41" color="yellow" id="route_6"/>
    <flow id="flow_0" begin="0.00" color="green" route="route_0" probability="0.01"/>
    <flow id="flow_2" begin="0.00" color="blue" route="route_2" probability="0.01"/>
    <flow id="flow_3" begin="0.00" color="red" route="e1" probability="0.01"/>
    <flow id="flow_4" begin="0.00" color="white" route="e2" probability="0.01"/>
    <flow id="flow_5" begin="0.00" route="e3" number="60" probability="0.01"/>
    <flow id="flow_6" begin="0.00" color="green" route="g1" probability="0.01"/>
    <flow id="flow_7" begin="0.00" color="yellow" route="g2" probability="0.01"/>
    <flow id="flow_8" begin="0.00" color="red" route="route_3" probability="0.01"/>
    <vehicle id="vehicle_0" type="train" depart="0.00" color="0,128,0" route="route_5"/>
    <vehicle id="vehicle_1" type="train" depart="0.00" route="route_6"/>
</routes>
